<?xml version="1.0" encoding="UTF-8"?>
<nodes xmlns:xsi="http://www.w3.org/2001/XMLSchema-instance" xsi:noNamespaceSchemaLocation="http://sumo.dlr.de/xsd/nodes_file.xsd">
    <node id="center" x="0.0" y="0.0" type="traffic_light"/>
    <node id="north" x="0.0" y="500.0" type="priority"/>
    <node id="south" x="0.0" y="-500.0" type="priority"/>
    <node id="east" x="500.0" y="0.0" type="priority"/>
    <node id="west" x="-500.0" y="0.0" type="priority"/>
</nodes>
