<?xml version="1.0" encoding="UTF-8"?>
<routes xmlns:xsi="http://www.w3.org/2001/XMLSchema-instance" xsi:noNamespaceSchemaLocation="http://sumo.dlr.de/xsd/routes_file.xsd">
    <vType id="car" accel="2.6" decel="4.5" sigma="0.5" length="5" minGap="2.5" maxSpeed="13.89"/>
    <flow id="flow_n" type="car" begin="0" end="3600" vehsPerHour="1200" from="n2c" to="c2s"/>
    <flow id="flow_e" type="car" begin="0" end="3600" vehsPerHour="800" from="e2c" to="c2w"/>
</routes>
